*Heading
*Preprint, echo=NO, model=NO, history=NO, contact=NO
*Part, name=matrix
*Node
      1,           1.,           1., 0.333333343
      2,           1.,  0.666666687, 0.333333343
      3,           1.,  0.333333343, 0.333333343
      4,           1.,           0., 0.333333343
      5,           1.,           1.,           0.
      6,           1.,  0.666666687,           0.
      7,           1.,  0.333333343,           0.
      8,           1.,           0.,           0.
      9,  0.666666687,           1., 0.333333343
     10,  0.666666687,  0.666666687, 0.333333343
     11,  0.666666687,  0.333333343, 0.333333343
     12,  0.666666687,           0., 0.333333343
     13,  0.666666687,           1.,           0.
     14,  0.666666687,  0.666666687,           0.
     15,  0.666666687,  0.333333343,           0.
     16,  0.666666687,           0.,           0.
     17,  0.333333343,           1., 0.333333343
     18,  0.333333343,  0.666666687, 0.333333343
     19,  0.333333343,  0.333333343, 0.333333343
     20,  0.333333343,           0., 0.333333343
** ... 12 like lines cut
*Element, type=C3D8R
 1,  9, 10, 14, 13,  1,  2,  6,  5
 2, 10, 11, 15, 14,  2,  3,  7,  6
 3, 11, 12, 16, 15,  3,  4,  8,  7
 4, 17, 18, 22, 21,  9, 10, 14, 13
 5, 18, 19, 23, 22, 10, 11, 15, 14
 6, 19, 20, 24, 23, 11, 12, 16, 15
 7, 25, 26, 30, 29, 17, 18, 22, 21
 8, 26, 27, 31, 30, 18, 19, 23, 22
 9, 27, 28, 32, 31, 19, 20, 24, 23
*Nset, nset=set-allnodes, generate
  1,  32,   1
*Elset, elset=set-allelements, generate
 1,  9,  1
*Nset, nset=set-x0, generate
 25,  32,   1
*Nset, nset=set-x1, generate
 1,  8,  1
*Nset, nset=set-y0, generate
  4,  32,   4
*Nset, nset=set-y1, generate
  1,  29,   4
*Nset, nset=set-z0
  5,  6,  7,  8, 13, 14, 15, 16, 21, 22, 23, 24, 29, 30, 31, 32
*Nset, nset=set-z1
  1,  2,  3,  4,  9, 10, 11, 12, 17, 18, 19, 20, 25, 26, 27, 28
*Nset, nset=set-dispnode
 1,
*Elset, elset=set-matrix, generate
 1, 9, 1
*Orientation, name=Ori-1
          0.,           0.,           1.,           1.,           0.,           0.
3, 0.
*Solid Section, elset=set-matrix, orientation=Ori-1, material=smp_10
,
*Hourglass Stiffness
10., , 0., 0.
*End Part
*Assembly, name=Assembly
*Instance, name=matrix-1, part=matrix
*End Instance
** *Node
**       1,           1,            0.,          0.
**       2,           0.,           1,           0.
**       3,           0.,           0.,          0.333333343
** *Nset, nset=set-rpx
**  1,
** *Nset, nset=set-rpy
**  2,
** *Nset, nset=set-rpz
**  3,
** *Equation
** 2
** matrix-1.set-y1, 2, 1.
** set-rpy, 2, -1.
** *Equation
** 2
** matrix-1.set-z1, 3, 1.
** set-rpz, 3, -1.
*End Assembly
*Amplitude, name=cure-amp
0, 20
13800, 250
21000, 250
34800, 20
*Material, name=smp_10
*Density
 1.2e-09,
*Depvar
30
*User Material, constants=0, type=THERMAL
*User Material, constants=2, type=MECHANICAL
2500, 0.35
*Boundary
matrix-1.set-x0, 1, 1
matrix-1.set-y0, 2, 2
matrix-1.set-z0, 3, 3
*Initial Conditions, type=TEMPERATURE
matrix-1.set-allnodes, 20.
*Step, name=cure-step, nlgeom=NO, inc=1000000, unsymm=YES
*Coupled Temperature-displacement, creep=none, deltmx=10.
60., 34800., 1e-6, 60.
*Solution Technique, type=SEPARATED
*Boundary, amplitude=cure-amp
matrix-1.set-allnodes, 11, 11, 1
*Restart, write, overlay, frequency=9999999
*Output, field, number interval=200
*Node Output
COORD, RF, U, NT
*Element Output, directions=YES
EVOL, IVOL, S, E, SDV, TEMP
*Output, history, variable=PRESELECT
*End Step